data_image0
_cell_length_a       11.2593
_cell_length_b       13.1933
_cell_length_c       123.206
_cell_angle_alpha    98.3947
_cell_angle_beta     90
_cell_angle_gamma    90

_symmetry_space_group_name_H-M    "P 1"
_symmetry_int_tables_number       1

loop_
  _symmetry_equiv_pos_as_xyz
  'x, y, z'

loop_
  _atom_site_label
  _atom_site_occupancy
  _atom_site_fract_x
  _atom_site_fract_y
  _atom_site_fract_z
  _atom_site_thermal_displace_type
  _atom_site_B_iso_or_equiv
  _atom_site_type_symbol
  Pt1      1.0000 0.00000  0.11919  0.24434  Biso   1.000  Pt
  Pt2      1.0000 0.00000  0.94067  0.18916  Biso   1.000  Pt
  Pt3      1.0000 0.00000  0.77378  0.13378  Biso   1.000  Pt
  Pt4      1.0000 0.00000  0.80672  0.23273  Biso   1.000  Pt
  Pt5      1.0000 0.00000  0.65230  0.17538  Biso   1.000  Pt
  Pt6      1.0000 0.00000  0.48476  0.11889  Biso   1.000  Pt
  Pt7      1.0000 0.00000  0.46124  0.23812  Biso   1.000  Pt
  Pt8      1.0000 0.00000  0.29672  0.18241  Biso   1.000  Pt
  Pt9      1.0000 0.00000  0.13473  0.12686  Biso   1.000  Pt
  Pt10     1.0000 0.00000  0.17250  0.22335  Biso   1.000  Pt
  Pt11     1.0000 0.00000  0.00550  0.16832  Biso   1.000  Pt
  Pt12     1.0000 0.00000  0.83743  0.11321  Biso   1.000  Pt
  Pt13     1.0000 0.00000  0.87333  0.21021  Biso   1.000  Pt
  Pt14     1.0000 0.00000  0.71234  0.15446  Biso   1.000  Pt
  Pt15     1.0000 0.00000  0.55480  0.09795  Biso   1.000  Pt
  Pt16     1.0000 0.00000  0.24044  0.08650  Biso   1.000  Pt
  Pt17     1.0000 0.00000  0.59130  0.19639  Biso   1.000  Pt
  Pt18     1.0000 0.00000  0.42205  0.14047  Biso   1.000  Pt
  Pt19     1.0000 0.00000  0.52664  0.21708  Biso   1.000  Pt
  Pt20     1.0000 0.00000  0.35878  0.16159  Biso   1.000  Pt
  Pt21     1.0000 0.00000  0.19625  0.10675  Biso   1.000  Pt
  Pt22     1.0000 0.00000  0.23393  0.20292  Biso   1.000  Pt
  Pt23     1.0000 0.00000  0.06949  0.14748  Biso   1.000  Pt
  Pt24     1.0000 0.00000  0.89816  0.09218  Biso   1.000  Pt
  Pt25     1.0000 0.12500  0.99125  0.22658  Biso   1.000  Pt
  Pt26     1.0000 0.12500  0.82872  0.17174  Biso   1.000  Pt
  Pt27     1.0000 0.12500  0.66086  0.11625  Biso   1.000  Pt
  Pt28     1.0000 0.12500  0.70273  0.21444  Biso   1.000  Pt
  Pt29     1.0000 0.12500  0.53520  0.15795  Biso   1.000  Pt
  Pt30     1.0000 0.12500  0.38078  0.10061  Biso   1.000  Pt
  Pt31     1.0000 0.12500  0.35007  0.22012  Biso   1.000  Pt
  Pt32     1.0000 0.12500  0.18200  0.16502  Biso   1.000  Pt
  Pt33     1.0000 0.12500  0.01500  0.10998  Biso   1.000  Pt
  Pt34     1.0000 0.12500  0.05277  0.20648  Biso   1.000  Pt
  Pt35     1.0000 0.12500  0.89078  0.15092  Biso   1.000  Pt
  Pt36     1.0000 0.12500  0.72626  0.09521  Biso   1.000  Pt
  Pt37     1.0000 0.12500  0.94706  0.24683  Biso   1.000  Pt
  Pt38     1.0000 0.12500  0.76545  0.19286  Biso   1.000  Pt
  Pt39     1.0000 0.12500  0.59619  0.13695  Biso   1.000  Pt
  Pt40     1.0000 0.12500  0.63270  0.23539  Biso   1.000  Pt
  Pt41     1.0000 0.12500  0.47516  0.17887  Biso   1.000  Pt
  Pt42     1.0000 0.12500  0.31417  0.12313  Biso   1.000  Pt
  Pt43     1.0000 0.12500  0.41372  0.19955  Biso   1.000  Pt
  Pt44     1.0000 0.12500  0.24683  0.14418  Biso   1.000  Pt
  Pt45     1.0000 0.12500  0.06831  0.08900  Biso   1.000  Pt
  Pt46     1.0000 0.12500  0.28934  0.24115  Biso   1.000  Pt
  Pt47     1.0000 0.12500  0.11801  0.18585  Biso   1.000  Pt
  Pt48     1.0000 0.12500  0.95357  0.13042  Biso   1.000  Pt
  Pt49     1.0000 0.25000  0.11919  0.24434  Biso   1.000  Pt
  Pt50     1.0000 0.25000  0.94067  0.18916  Biso   1.000  Pt
  Pt51     1.0000 0.25000  0.77378  0.13378  Biso   1.000  Pt
  Pt52     1.0000 0.25000  0.80672  0.23273  Biso   1.000  Pt
  Pt53     1.0000 0.25000  0.65230  0.17538  Biso   1.000  Pt
  Pt54     1.0000 0.25000  0.48476  0.11889  Biso   1.000  Pt
  Pt55     1.0000 0.25000  0.46124  0.23812  Biso   1.000  Pt
  Pt56     1.0000 0.25000  0.29672  0.18241  Biso   1.000  Pt
  Pt57     1.0000 0.25000  0.13473  0.12686  Biso   1.000  Pt
  Pt58     1.0000 0.25000  0.17250  0.22335  Biso   1.000  Pt
  Pt59     1.0000 0.25000  0.00550  0.16832  Biso   1.000  Pt
  Pt60     1.0000 0.25000  0.83743  0.11321  Biso   1.000  Pt
  Pt61     1.0000 0.25000  0.87333  0.21021  Biso   1.000  Pt
  Pt62     1.0000 0.25000  0.71234  0.15446  Biso   1.000  Pt
  Pt63     1.0000 0.25000  0.55480  0.09795  Biso   1.000  Pt
  Pt64     1.0000 0.25000  0.24044  0.08650  Biso   1.000  Pt
  Pt65     1.0000 0.25000  0.59130  0.19639  Biso   1.000  Pt
  Pt66     1.0000 0.25000  0.42205  0.14047  Biso   1.000  Pt
  Pt67     1.0000 0.25000  0.52664  0.21708  Biso   1.000  Pt
  Pt68     1.0000 0.25000  0.35878  0.16159  Biso   1.000  Pt
  Pt69     1.0000 0.25000  0.19625  0.10675  Biso   1.000  Pt
  Pt70     1.0000 0.25000  0.23393  0.20292  Biso   1.000  Pt
  Pt71     1.0000 0.25000  0.06949  0.14748  Biso   1.000  Pt
  Pt72     1.0000 0.25000  0.89816  0.09218  Biso   1.000  Pt
  Pt73     1.0000 0.37500  0.99125  0.22658  Biso   1.000  Pt
  Pt74     1.0000 0.37500  0.82872  0.17174  Biso   1.000  Pt
  Pt75     1.0000 0.37500  0.66086  0.11625  Biso   1.000  Pt
  Pt76     1.0000 0.37500  0.70273  0.21444  Biso   1.000  Pt
  Pt77     1.0000 0.37500  0.53520  0.15795  Biso   1.000  Pt
  Pt78     1.0000 0.37500  0.38078  0.10061  Biso   1.000  Pt
  Pt79     1.0000 0.37500  0.35007  0.22012  Biso   1.000  Pt
  Pt80     1.0000 0.37500  0.18200  0.16502  Biso   1.000  Pt
  Pt81     1.0000 0.37500  0.01500  0.10998  Biso   1.000  Pt
  Pt82     1.0000 0.37500  0.05277  0.20648  Biso   1.000  Pt
  Pt83     1.0000 0.37500  0.89078  0.15092  Biso   1.000  Pt
  Pt84     1.0000 0.37500  0.72626  0.09521  Biso   1.000  Pt
  Pt85     1.0000 0.37500  0.94706  0.24683  Biso   1.000  Pt
  Pt86     1.0000 0.37500  0.76545  0.19286  Biso   1.000  Pt
  Pt87     1.0000 0.37500  0.59619  0.13695  Biso   1.000  Pt
  Pt88     1.0000 0.37500  0.63270  0.23539  Biso   1.000  Pt
  Pt89     1.0000 0.37500  0.47516  0.17887  Biso   1.000  Pt
  Pt90     1.0000 0.37500  0.31417  0.12313  Biso   1.000  Pt
  Pt91     1.0000 0.37500  0.41372  0.19955  Biso   1.000  Pt
  Pt92     1.0000 0.37500  0.24683  0.14418  Biso   1.000  Pt
  Pt93     1.0000 0.37500  0.06831  0.08900  Biso   1.000  Pt
  Pt94     1.0000 0.37500  0.28934  0.24115  Biso   1.000  Pt
  Pt95     1.0000 0.37500  0.11801  0.18585  Biso   1.000  Pt
  Pt96     1.0000 0.37500  0.95357  0.13042  Biso   1.000  Pt
  Pt97     1.0000 0.50000  0.11919  0.24434  Biso   1.000  Pt
  Pt98     1.0000 0.50000  0.94067  0.18916  Biso   1.000  Pt
  Pt99     1.0000 0.50000  0.77378  0.13378  Biso   1.000  Pt
  Pt100    1.0000 0.50000  0.80672  0.23273  Biso   1.000  Pt
  Pt101    1.0000 0.50000  0.65230  0.17538  Biso   1.000  Pt
  Pt102    1.0000 0.50000  0.48476  0.11889  Biso   1.000  Pt
  Pt103    1.0000 0.50000  0.46124  0.23812  Biso   1.000  Pt
  Pt104    1.0000 0.50000  0.29672  0.18241  Biso   1.000  Pt
  Pt105    1.0000 0.50000  0.13473  0.12686  Biso   1.000  Pt
  Pt106    1.0000 0.50000  0.17250  0.22335  Biso   1.000  Pt
  Pt107    1.0000 0.50000  0.00550  0.16832  Biso   1.000  Pt
  Pt108    1.0000 0.50000  0.83743  0.11321  Biso   1.000  Pt
  Pt109    1.0000 0.50000  0.87333  0.21021  Biso   1.000  Pt
  Pt110    1.0000 0.50000  0.71234  0.15446  Biso   1.000  Pt
  Pt111    1.0000 0.50000  0.55480  0.09795  Biso   1.000  Pt
  Pt112    1.0000 0.50000  0.24044  0.08650  Biso   1.000  Pt
  Pt113    1.0000 0.50000  0.59130  0.19639  Biso   1.000  Pt
  Pt114    1.0000 0.50000  0.42205  0.14047  Biso   1.000  Pt
  Pt115    1.0000 0.50000  0.52664  0.21708  Biso   1.000  Pt
  Pt116    1.0000 0.50000  0.35878  0.16159  Biso   1.000  Pt
  Pt117    1.0000 0.50000  0.19625  0.10675  Biso   1.000  Pt
  Pt118    1.0000 0.50000  0.23393  0.20292  Biso   1.000  Pt
  Pt119    1.0000 0.50000  0.06949  0.14748  Biso   1.000  Pt
  Pt120    1.0000 0.50000  0.89816  0.09218  Biso   1.000  Pt
  Pt121    1.0000 0.62500  0.99125  0.22658  Biso   1.000  Pt
  Pt122    1.0000 0.62500  0.82872  0.17174  Biso   1.000  Pt
  Pt123    1.0000 0.62500  0.66086  0.11625  Biso   1.000  Pt
  Pt124    1.0000 0.62500  0.70273  0.21444  Biso   1.000  Pt
  Pt125    1.0000 0.62500  0.53520  0.15795  Biso   1.000  Pt
  Pt126    1.0000 0.62500  0.38078  0.10061  Biso   1.000  Pt
  Pt127    1.0000 0.62500  0.35007  0.22012  Biso   1.000  Pt
  Pt128    1.0000 0.62500  0.18200  0.16502  Biso   1.000  Pt
  Pt129    1.0000 0.62500  0.01500  0.10998  Biso   1.000  Pt
  Pt130    1.0000 0.62500  0.05277  0.20648  Biso   1.000  Pt
  Pt131    1.0000 0.62500  0.89078  0.15092  Biso   1.000  Pt
  Pt132    1.0000 0.62500  0.72626  0.09521  Biso   1.000  Pt
  Pt133    1.0000 0.62500  0.94706  0.24683  Biso   1.000  Pt
  Pt134    1.0000 0.62500  0.76545  0.19286  Biso   1.000  Pt
  Pt135    1.0000 0.62500  0.59619  0.13695  Biso   1.000  Pt
  Pt136    1.0000 0.62500  0.63270  0.23539  Biso   1.000  Pt
  Pt137    1.0000 0.62500  0.47516  0.17887  Biso   1.000  Pt
  Pt138    1.0000 0.62500  0.31417  0.12313  Biso   1.000  Pt
  Pt139    1.0000 0.62500  0.41372  0.19955  Biso   1.000  Pt
  Pt140    1.0000 0.62500  0.24683  0.14418  Biso   1.000  Pt
  Pt141    1.0000 0.62500  0.06831  0.08900  Biso   1.000  Pt
  Pt142    1.0000 0.62500  0.28934  0.24115  Biso   1.000  Pt
  Pt143    1.0000 0.62500  0.11801  0.18585  Biso   1.000  Pt
  Pt144    1.0000 0.62500  0.95357  0.13042  Biso   1.000  Pt
  Pt145    1.0000 0.75000  0.11919  0.24434  Biso   1.000  Pt
  Pt146    1.0000 0.75000  0.94067  0.18916  Biso   1.000  Pt
  Pt147    1.0000 0.75000  0.77378  0.13378  Biso   1.000  Pt
  Pt148    1.0000 0.75000  0.80672  0.23273  Biso   1.000  Pt
  Pt149    1.0000 0.75000  0.65230  0.17538  Biso   1.000  Pt
  Pt150    1.0000 0.75000  0.48476  0.11889  Biso   1.000  Pt
  Pt151    1.0000 0.75000  0.46124  0.23812  Biso   1.000  Pt
  Pt152    1.0000 0.75000  0.29672  0.18241  Biso   1.000  Pt
  Pt153    1.0000 0.75000  0.13473  0.12686  Biso   1.000  Pt
  Pt154    1.0000 0.75000  0.17250  0.22335  Biso   1.000  Pt
  Pt155    1.0000 0.75000  0.00550  0.16832  Biso   1.000  Pt
  Pt156    1.0000 0.75000  0.83743  0.11321  Biso   1.000  Pt
  Pt157    1.0000 0.75000  0.87333  0.21021  Biso   1.000  Pt
  Pt158    1.0000 0.75000  0.71234  0.15446  Biso   1.000  Pt
  Pt159    1.0000 0.75000  0.55480  0.09795  Biso   1.000  Pt
  Pt160    1.0000 0.75000  0.24044  0.08650  Biso   1.000  Pt
  Pt161    1.0000 0.75000  0.59130  0.19639  Biso   1.000  Pt
  Pt162    1.0000 0.75000  0.42205  0.14047  Biso   1.000  Pt
  Pt163    1.0000 0.75000  0.52664  0.21708  Biso   1.000  Pt
  Pt164    1.0000 0.75000  0.35878  0.16159  Biso   1.000  Pt
  Pt165    1.0000 0.75000  0.19625  0.10675  Biso   1.000  Pt
  Pt166    1.0000 0.75000  0.23393  0.20292  Biso   1.000  Pt
  Pt167    1.0000 0.75000  0.06949  0.14748  Biso   1.000  Pt
  Pt168    1.0000 0.75000  0.89816  0.09218  Biso   1.000  Pt
  Pt169    1.0000 0.87500  0.99125  0.22658  Biso   1.000  Pt
  Pt170    1.0000 0.87500  0.82872  0.17174  Biso   1.000  Pt
  Pt171    1.0000 0.87500  0.66086  0.11625  Biso   1.000  Pt
  Pt172    1.0000 0.87500  0.70273  0.21444  Biso   1.000  Pt
  Pt173    1.0000 0.87500  0.53520  0.15795  Biso   1.000  Pt
  Pt174    1.0000 0.87500  0.38078  0.10061  Biso   1.000  Pt
  Pt175    1.0000 0.87500  0.35007  0.22012  Biso   1.000  Pt
  Pt176    1.0000 0.87500  0.18200  0.16502  Biso   1.000  Pt
  Pt177    1.0000 0.87500  0.01500  0.10998  Biso   1.000  Pt
  Pt178    1.0000 0.87500  0.05277  0.20648  Biso   1.000  Pt
  Pt179    1.0000 0.87500  0.89078  0.15092  Biso   1.000  Pt
  Pt180    1.0000 0.87500  0.72626  0.09521  Biso   1.000  Pt
  Pt181    1.0000 0.87500  0.94706  0.24683  Biso   1.000  Pt
  Pt182    1.0000 0.87500  0.76545  0.19286  Biso   1.000  Pt
  Pt183    1.0000 0.87500  0.59619  0.13695  Biso   1.000  Pt
  Pt184    1.0000 0.87500  0.63270  0.23539  Biso   1.000  Pt
  Pt185    1.0000 0.87500  0.47516  0.17887  Biso   1.000  Pt
  Pt186    1.0000 0.87500  0.31417  0.12313  Biso   1.000  Pt
  Pt187    1.0000 0.87500  0.41372  0.19955  Biso   1.000  Pt
  Pt188    1.0000 0.87500  0.24683  0.14418  Biso   1.000  Pt
  Pt189    1.0000 0.87500  0.06831  0.08900  Biso   1.000  Pt
  Pt190    1.0000 0.87500  0.28934  0.24115  Biso   1.000  Pt
  Pt191    1.0000 0.87500  0.11801  0.18585  Biso   1.000  Pt
  Pt192    1.0000 0.87500  0.95357  0.13042  Biso   1.000  Pt
